416

C          0.00000        0.00000        0.00000
C         -0.70900        1.22802        0.00000
C          1.41800        0.00000        0.00000
C          2.12700        1.22802        0.00000
C          4.25400        0.00000        0.00000
C          3.54500        1.22802        0.00000
C          5.67200        0.00000        0.00000
C          6.38100        1.22802        0.00000
C          8.50800        0.00000        0.00000
C          7.79900        1.22802        0.00000
C          9.92600        0.00000        0.00000
C         10.63500        1.22802        0.00000
C         12.76200        0.00000        0.00000
C         12.05300        1.22802        0.00000
C         14.18000        0.00000        0.00000
C         14.88900        1.22802        0.00000
C         17.01600        0.00000        0.00000
C         16.30700        1.22802        0.00000
C         18.43400        0.00000        0.00000
C         19.14300        1.22802        0.00000
C         21.27000        0.00000        0.00000
C         20.56100        1.22802        0.00000
C         22.68800        0.00000        0.00000
C         23.39700        1.22802        0.00000
C         25.52400        0.00000        0.00000
C         24.81500        1.22802        0.00000
C         26.94200        0.00000        0.00000
C         27.65100        1.22802        0.00000
C         29.77800        0.00000        0.00000
C         29.06900        1.22802        0.00000
C         31.19600        0.00000        0.00000
C         31.90500        1.22802        0.00000
C          0.00000        2.45605        0.00000
C         -0.70900        3.68407        0.00000
C          1.41800        2.45605        0.00000
C          2.12700        3.68407        0.00000
C          4.25400        2.45605        0.00000
C          3.54500        3.68407        0.00000
C          5.67200        2.45605        0.00000
C          6.38100        3.68407        0.00000
C          8.50800        2.45605        0.00000
C          7.79900        3.68407        0.00000
C          9.92600        2.45605        0.00000
C         10.63500        3.68407        0.00000
C         12.76200        2.45605        0.00000
C         12.05300        3.68407        0.00000
C         14.18000        2.45605        0.00000
C         14.88900        3.68407        0.00000
C         17.01600        2.45605        0.00000
C         16.30700        3.68407        0.00000
C         18.43400        2.45605        0.00000
C         19.14300        3.68407        0.00000
C         21.27000        2.45605        0.00000
C         20.56100        3.68407        0.00000
C         22.68800        2.45605        0.00000
C         23.39700        3.68407        0.00000
C         25.52400        2.45605        0.00000
C         24.81500        3.68407        0.00000
C         26.94200        2.45605        0.00000
C         27.65100        3.68407        0.00000
C         29.77800        2.45605        0.00000
C         29.06900        3.68407        0.00000
C         31.19600        2.45605        0.00000
C         31.90500        3.68407        0.00000
C          0.00000        4.91210        0.00000
C         -0.70900        6.14012        0.00000
C          1.41800        4.91210        0.00000
C          2.12700        6.14012        0.00000
C          4.25400        4.91210        0.00000
C          3.54500        6.14012        0.00000
C          5.67200        4.91210        0.00000
C          6.38100        6.14012        0.00000
C          8.50800        4.91210        0.00000
C          7.79900        6.14012        0.00000
C          9.92600        4.91210        0.00000
C         10.63500        6.14012        0.00000
C         12.76200        4.91210        0.00000
C         12.05300        6.14012        0.00000
C         14.18000        4.91210        0.00000
C         14.88900        6.14012        0.00000
C         17.01600        4.91210        0.00000
C         16.30700        6.14012        0.00000
C         18.43400        4.91210        0.00000
C         19.14300        6.14012        0.00000
C         21.27000        4.91210        0.00000
C         20.56100        6.14012        0.00000
C         22.68800        4.91210        0.00000
C         23.39700        6.14012        0.00000
C         25.52400        4.91210        0.00000
C         24.81500        6.14012        0.00000
C         26.94200        4.91210        0.00000
C         27.65100        6.14012        0.00000
C         29.77800        4.91210        0.00000
C         29.06900        6.14012        0.00000
C         31.19600        4.91210        0.00000
C         31.90500        6.14012        0.00000
C          0.00000        7.36814        0.00000
C         -0.70900        8.59617        0.00000
C          1.41800        7.36814        0.00000
C          2.12700        8.59617        0.00000
C          4.25400        7.36814        0.00000
C          3.54500        8.59617        0.00000
C          5.67200        7.36814        0.00000
C          6.38100        8.59617        0.00000
C          8.50800        7.36814        0.00000
C          7.79900        8.59617        0.00000
C          9.92600        7.36814        0.00000
C         10.63500        8.59617        0.00000
C         12.76200        7.36814        0.00000
C         12.05300        8.59617        0.00000
C         14.18000        7.36814        0.00000
C         14.88900        8.59617        0.00000
C         17.01600        7.36814        0.00000
C         16.30700        8.59617        0.00000
C         18.43400        7.36814        0.00000
C         19.14300        8.59617        0.00000
C         21.27000        7.36814        0.00000
C         20.56100        8.59617        0.00000
C         22.68800        7.36814        0.00000
C         23.39700        8.59617        0.00000
C         25.52400        7.36814        0.00000
C         24.81500        8.59617        0.00000
C         26.94200        7.36814        0.00000
C         27.65100        8.59617        0.00000
C         29.77800        7.36814        0.00000
C         29.06900        8.59617        0.00000
C         31.19600        7.36814        0.00000
C         31.90500        8.59617        0.00000
C          0.00000        9.82419        0.00000
C         -0.70900       11.05222        0.00000
C          1.41800        9.82419        0.00000
C          2.12700       11.05222        0.00000
C          4.25400        9.82419        0.00000
C          3.54500       11.05222        0.00000
C          5.67200        9.82419        0.00000
C          6.38100       11.05222        0.00000
C          8.50800        9.82419        0.00000
C          7.79900       11.05222        0.00000
C          9.92600        9.82419        0.00000
C         10.63500       11.05222        0.00000
C         12.76200        9.82419        0.00000
C         12.05300       11.05222        0.00000
C         14.18000        9.82419        0.00000
C         14.88900       11.05222        0.00000
C         17.01600        9.82419        0.00000
C         16.30700       11.05222        0.00000
C         18.43400        9.82419        0.00000
C         19.14300       11.05222        0.00000
C         21.27000        9.82419        0.00000
C         20.56100       11.05222        0.00000
C         22.68800        9.82419        0.00000
C         23.39700       11.05222        0.00000
C         25.52400        9.82419        0.00000
C         24.81500       11.05222        0.00000
C         26.94200        9.82419        0.00000
C         27.65100       11.05222        0.00000
C         29.77800        9.82419        0.00000
C         29.06900       11.05222        0.00000
C         31.19600        9.82419        0.00000
C         31.90500       11.05222        0.00000
C          0.00000       12.28024        0.00000
C         -0.70900       13.50827        0.00000
C          1.41800       12.28024        0.00000
C          2.12700       13.50827        0.00000
C          4.25400       12.28024        0.00000
C          3.54500       13.50827        0.00000
C          5.67200       12.28024        0.00000
C          6.38100       13.50827        0.00000
C          8.50800       12.28024        0.00000
C          7.79900       13.50827        0.00000
C          9.92600       12.28024        0.00000
C         10.63500       13.50827        0.00000
C         12.76200       12.28024        0.00000
C         12.05300       13.50827        0.00000
C         14.18000       12.28024        0.00000
C         14.88900       13.50827        0.00000
C         17.01600       12.28024        0.00000
C         16.30700       13.50827        0.00000
C         18.43400       12.28024        0.00000
C         19.14300       13.50827        0.00000
C         21.27000       12.28024        0.00000
C         20.56100       13.50827        0.00000
C         22.68800       12.28024        0.00000
C         23.39700       13.50827        0.00000
C         25.52400       12.28024        0.00000
C         24.81500       13.50827        0.00000
C         26.94200       12.28024        0.00000
C         27.65100       13.50827        0.00000
C         29.77800       12.28024        0.00000
C         29.06900       13.50827        0.00000
C         31.19600       12.28024        0.00000
C         31.90500       13.50827        0.00000
C          0.00000       14.73629        0.00000
C         -0.70900       15.96431        0.00000
C          1.41800       14.73629        0.00000
C          2.12700       15.96431        0.00000
C          4.25400       14.73629        0.00000
C          3.54500       15.96431        0.00000
C          5.67200       14.73629        0.00000
C          6.38100       15.96431        0.00000
C          8.50800       14.73629        0.00000
C          7.79900       15.96431        0.00000
C          9.92600       14.73629        0.00000
C         10.63500       15.96431        0.00000
C         12.76200       14.73629        0.00000
C         12.05300       15.96431        0.00000
C         14.18000       14.73629        0.00000
C         14.88900       15.96431        0.00000
C         17.01600       14.73629        0.00000
C         16.30700       15.96431        0.00000
C         18.43400       14.73629        0.00000
C         19.14300       15.96431        0.00000
C         21.27000       14.73629        0.00000
C         20.56100       15.96431        0.00000
C         22.68800       14.73629        0.00000
C         23.39700       15.96431        0.00000
C         25.52400       14.73629        0.00000
C         24.81500       15.96431        0.00000
C         26.94200       14.73629        0.00000
C         27.65100       15.96431        0.00000
C         29.77800       14.73629        0.00000
C         29.06900       15.96431        0.00000
C         31.19600       14.73629        0.00000
C         31.90500       15.96431        0.00000
C          0.00000       17.19234        0.00000
C         -0.70900       18.42036        0.00000
C          1.41800       17.19234        0.00000
C          2.12700       18.42036        0.00000
C          4.25400       17.19234        0.00000
C          3.54500       18.42036        0.00000
C          5.67200       17.19234        0.00000
C          6.38100       18.42036        0.00000
C          8.50800       17.19234        0.00000
C          7.79900       18.42036        0.00000
C          9.92600       17.19234        0.00000
C         10.63500       18.42036        0.00000
C         12.76200       17.19234        0.00000
C         12.05300       18.42036        0.00000
C         14.18000       17.19234        0.00000
C         14.88900       18.42036        0.00000
C         17.01600       17.19234        0.00000
C         16.30700       18.42036        0.00000
C         18.43400       17.19234        0.00000
C         19.14300       18.42036        0.00000
C         21.27000       17.19234        0.00000
C         20.56100       18.42036        0.00000
C         22.68800       17.19234        0.00000
C         23.39700       18.42036        0.00000
C         25.52400       17.19234        0.00000
C         24.81500       18.42036        0.00000
C         26.94200       17.19234        0.00000
C         27.65100       18.42036        0.00000
C         29.77800       17.19234        0.00000
C         29.06900       18.42036        0.00000
C         31.19600       17.19234        0.00000
C         31.90500       18.42036        0.00000
C          0.00000       19.64838        0.00000
C         -0.70900       20.87641        0.00000
C          1.41800       19.64838        0.00000
C          2.12700       20.87641        0.00000
C          4.25400       19.64838        0.00000
C          3.54500       20.87641        0.00000
C          5.67200       19.64838        0.00000
C          6.38100       20.87641        0.00000
C          8.50800       19.64838        0.00000
C          7.79900       20.87641        0.00000
C          9.92600       19.64838        0.00000
C         10.63500       20.87641        0.00000
C         12.76200       19.64838        0.00000
C         12.05300       20.87641        0.00000
C         14.18000       19.64838        0.00000
C         14.88900       20.87641        0.00000
C         17.01600       19.64838        0.00000
C         16.30700       20.87641        0.00000
C         18.43400       19.64838        0.00000
C         19.14300       20.87641        0.00000
C         21.27000       19.64838        0.00000
C         20.56100       20.87641        0.00000
C         22.68800       19.64838        0.00000
C         23.39700       20.87641        0.00000
C         25.52400       19.64838        0.00000
C         24.81500       20.87641        0.00000
C         26.94200       19.64838        0.00000
C         27.65100       20.87641        0.00000
C         29.77800       19.64838        0.00000
C         29.06900       20.87641        0.00000
C         31.19600       19.64838        0.00000
C         31.90500       20.87641        0.00000
C          0.00000       22.10443        0.00000
C         -0.70900       23.33246        0.00000
C          1.41800       22.10443        0.00000
C          2.12700       23.33246        0.00000
C          4.25400       22.10443        0.00000
C          3.54500       23.33246        0.00000
C          5.67200       22.10443        0.00000
C          6.38100       23.33246        0.00000
C          8.50800       22.10443        0.00000
C          7.79900       23.33246        0.00000
C          9.92600       22.10443        0.00000
C         10.63500       23.33246        0.00000
C         12.76200       22.10443        0.00000
C         12.05300       23.33246        0.00000
C         14.18000       22.10443        0.00000
C         14.88900       23.33246        0.00000
C         17.01600       22.10443        0.00000
C         16.30700       23.33246        0.00000
C         18.43400       22.10443        0.00000
C         19.14300       23.33246        0.00000
C         21.27000       22.10443        0.00000
C         20.56100       23.33246        0.00000
C         22.68800       22.10443        0.00000
C         23.39700       23.33246        0.00000
C         25.52400       22.10443        0.00000
C         24.81500       23.33246        0.00000
C         26.94200       22.10443        0.00000
C         27.65100       23.33246        0.00000
C         29.77800       22.10443        0.00000
C         29.06900       23.33246        0.00000
C         31.19600       22.10443        0.00000
C         31.90500       23.33246        0.00000
C          0.00000       24.56048        0.00000
C         -0.70900       25.78850        0.00000
C          1.41800       24.56048        0.00000
C          2.12700       25.78850        0.00000
C          4.25400       24.56048        0.00000
C          3.54500       25.78850        0.00000
C          5.67200       24.56048        0.00000
C          6.38100       25.78850        0.00000
C          8.50800       24.56048        0.00000
C          7.79900       25.78850        0.00000
C          9.92600       24.56048        0.00000
C         10.63500       25.78850        0.00000
C         12.76200       24.56048        0.00000
C         12.05300       25.78850        0.00000
C         14.18000       24.56048        0.00000
C         14.88900       25.78850        0.00000
C         17.01600       24.56048        0.00000
C         16.30700       25.78850        0.00000
C         18.43400       24.56048        0.00000
C         19.14300       25.78850        0.00000
C         21.27000       24.56048        0.00000
C         20.56100       25.78850        0.00000
C         22.68800       24.56048        0.00000
C         23.39700       25.78850        0.00000
C         25.52400       24.56048        0.00000
C         24.81500       25.78850        0.00000
C         26.94200       24.56048        0.00000
C         27.65100       25.78850        0.00000
C         29.77800       24.56048        0.00000
C         29.06900       25.78850        0.00000
C         31.19600       24.56048        0.00000
C         31.90500       25.78850        0.00000
C          0.00000       27.01653        0.00000
C         -0.70900       28.24455        0.00000
C          1.41800       27.01653        0.00000
C          2.12700       28.24455        0.00000
C          4.25400       27.01653        0.00000
C          3.54500       28.24455        0.00000
C          5.67200       27.01653        0.00000
C          6.38100       28.24455        0.00000
C          8.50800       27.01653        0.00000
C          7.79900       28.24455        0.00000
C          9.92600       27.01653        0.00000
C         10.63500       28.24455        0.00000
C         12.76200       27.01653        0.00000
C         12.05300       28.24455        0.00000
C         14.18000       27.01653        0.00000
C         14.88900       28.24455        0.00000
C         17.01600       27.01653        0.00000
C         16.30700       28.24455        0.00000
C         18.43400       27.01653        0.00000
C         19.14300       28.24455        0.00000
C         21.27000       27.01653        0.00000
C         20.56100       28.24455        0.00000
C         22.68800       27.01653        0.00000
C         23.39700       28.24455        0.00000
C         25.52400       27.01653        0.00000
C         24.81500       28.24455        0.00000
C         26.94200       27.01653        0.00000
C         27.65100       28.24455        0.00000
C         29.77800       27.01653        0.00000
C         29.06900       28.24455        0.00000
C         31.19600       27.01653        0.00000
C         31.90500       28.24455        0.00000
C          0.00000       29.47258        0.00000
C         -0.70900       30.70060        0.00000
C          1.41800       29.47258        0.00000
C          2.12700       30.70060        0.00000
C          4.25400       29.47258        0.00000
C          3.54500       30.70060        0.00000
C          5.67200       29.47258        0.00000
C          6.38100       30.70060        0.00000
C          8.50800       29.47258        0.00000
C          7.79900       30.70060        0.00000
C          9.92600       29.47258        0.00000
C         10.63500       30.70060        0.00000
C         12.76200       29.47258        0.00000
C         12.05300       30.70060        0.00000
C         14.18000       29.47258        0.00000
C         14.88900       30.70060        0.00000
C         17.01600       29.47258        0.00000
C         16.30700       30.70060        0.00000
C         18.43400       29.47258        0.00000
C         19.14300       30.70060        0.00000
C         21.27000       29.47258        0.00000
C         20.56100       30.70060        0.00000
C         22.68800       29.47258        0.00000
C         23.39700       30.70060        0.00000
C         25.52400       29.47258        0.00000
C         24.81500       30.70060        0.00000
C         26.94200       29.47258        0.00000
C         27.65100       30.70060        0.00000
C         29.77800       29.47258        0.00000
C         29.06900       30.70060        0.00000
C         31.19600       29.47258        0.00000
C         31.90500       30.70060        0.00000
